File E:\Teaching\Online Courses\SHM-1401\Models and Files\PART6\Bridge Moving Load RHA Identification\SAP 23 Model\Main Bridge Moving Load.$2k was saved on m/d/yy at h:mm:ss
 
TABLE:  "ACTIVE DEGREES OF FREEDOM"
   UX=Yes   UY=No   UZ=Yes   RX=No   RY=Yes   RZ=No
 
TABLE:  "ANALYSIS OPTIONS"
   Solver=Advanced   SolverProc=Auto   Force32Bit=No   StiffCase=None   GeomMod=None   HingeOpt="In Elements"   NumAThreads=0   MaxFileSize=0   NumDThreads=0   NumRThreads=0   UseMMFiles="Program Determined"   AllowDiff=No
 
TABLE:  "AUTO WAVE 3 - WAVE CHARACTERISTICS - GENERAL"
   WaveChar=Default   WaveType="From Theory"   KinFactor=1   SWaterDepth=4500   WaveHeight=1800   WavePeriod=12   WaveTheory=Linear
 
TABLE:  "CASE - MODAL 1 - GENERAL"
   Case=MODAL   ModeType=Eigen   MaxNumModes=1   MinNumModes=1   EigenShift=0   EigenCutoff=0   EigenTol=1E-09   AutoShift=Yes
 
TABLE:  "CASE - MODAL HISTORY 1 - GENERAL"
   Case="RHA Moveing Load"   HistoryType=Transient   OutSteps=320   StepSize=0.01
 
TABLE:  "CASE - MODAL HISTORY 2 - LOAD ASSIGNMENTS"
   Case="RHA Moveing Load"   LoadType="Load pattern"   LoadName=Move   Function=RAMPTH   LoadSF=1   TimeFactor=1   ArrivalTime=0
 
TABLE:  "CASE - MODAL HISTORY 4 - PROPORTIONAL DAMPING"
   Case="RHA Moveing Load"   MassCoeff=0   StiffCoeff=0
 
TABLE:  "CASE - STATIC 1 - LOAD ASSIGNMENTS"
   Case=DEAD   LoadType="Load pattern"   LoadName=DEAD   LoadSF=1
 
TABLE:  "CONNECTIVITY - FRAME"
   Frame=2   JointI=1   JointJ=54   IsCurved=No   GUID=b92571a5-6740-4909-a908-988ade0d2223
 
TABLE:  "COORDINATE SYSTEMS"
   Name=GLOBAL   Type=Cartesian   X=0   Y=0   Z=0   AboutZ=0   AboutY=0   AboutX=0
 
TABLE:  "DATABASE DOCUMENTATION"
 
TABLE:  "DATABASE FORMAT TYPES"
   UnitsCurr=Yes   OverrideE=No
 
TABLE:  "FRAME ADDED MASS ASSIGNMENTS"
   Frame=2   MassPerLen=0.0489463772266762
 
TABLE:  "FRAME AUTO MESH ASSIGNMENTS"
   Frame=2   AutoMesh=Yes   AtJoints=Yes   AtFrames=No   NumSegments=250   MaxLength=0   MaxDegrees=0
 
TABLE:  "FRAME DESIGN PROCEDURES"
   Frame=2   DesignProc="From Material"
 
TABLE:  "FRAME LOADS - DISTRIBUTED"
   Frame=2   LoadPat=DEAD   CoordSys=GLOBAL   Type=Force   Dir=Gravity   DistType=RelDist   RelDistA=0   RelDistB=1   AbsDistA=0   AbsDistB=3000   FOverLA=10   FOverLB=10   GUID=86cea8f3-0f4b-411f-8eba-08e9c961dc65
 
TABLE:  "FRAME LOAD TRANSFER OPTIONS"
   Frame=2   Transfer=Yes
 
TABLE:  "FRAME OUTPUT STATION ASSIGNMENTS"
   Frame=2   StationType=MaxStaSpcg   MaxStaSpcg=50   AddAtElmInt=Yes   AddAtPtLoad=Yes
 
TABLE:  "FRAME SECTION ASSIGNMENTS"
   Frame=2   AutoSelect=N.A.   AnalSect=Beam1   MatProp=Default
 
TABLE:  "FRAME SECTION PROPERTIES 01 - GENERAL"
   SectionName=Beam1   Material=ST37   Shape="I/Wide Flange"   t3=90   t2=30   tf=2   tw=0.8   t2b=30   tfb=2   FilletRadius=0   Area=188.8   TorsConst=167.871317333333   I33=274763.733333333   I22=9003.66933333333   I23=0   AS2=72 _
        AS3=100   S33=6105.86074074074   S22=600.244622222222   Z33=6759.2   Z22=913.76   R33=38.1486092037546   R22=6.90571694711507   Color=Yellow   FromFile=No   AMod=1   A2Mod=1   A3Mod=1   JMod=1   I2Mod=1   I3Mod=1   MMod=1   WMod=1
 
TABLE:  "FRAME SECTION PROPERTIES 13 - TIME DEPENDENT"
   SectionName=Beam1   TypeSize=Auto   AutoSFSize=1
 
TABLE:  "FUNCTION - PLOT FUNCTIONS"
   PlotFunc="Input Energy"   Type=Energy   Component=Input   Mode=All
   PlotFunc=Joint3   Type=Joint   ObjectLabel=3   Component=RelDispU3   Mode=All
   PlotFunc=Joint3-1   Type=Joint   ObjectLabel=3   Component=RelDispU1   Mode=All
 
TABLE:  "FUNCTION - POWER SPECTRAL DENSITY - USER"
   Name=UNIFPSD   Frequency=0   Value=1
   Name=UNIFPSD   Frequency=1   Value=1
 
TABLE:  "FUNCTION - RESPONSE SPECTRUM - USER"
   Name=UNIFRS   Period=0   Accel=1   FuncDamp=0.05
   Name=UNIFRS   Period=1   Accel=1
 
TABLE:  "FUNCTION - STEADY STATE - USER"
   Name=UNIFSS   Frequency=0   Value=1
   Name=UNIFSS   Frequency=1   Value=1
 
TABLE:  "FUNCTION - TIME HISTORY - USER"
   Name=RAMPTH   Time=0   Value=0
   Name=RAMPTH   Time=1   Value=1
   Name=RAMPTH   Time=4   Value=1
   Name=UNIFTH   Time=0   Value=1
   Name=UNIFTH   Time=1   Value=1
 
TABLE:  "GRID LINES"
   CoordSys=GLOBAL   AxisDir=X   XRYZCoord=0   LineType=Primary   LineColor=Gray8Dark   Visible=Yes   BubbleLoc=End   AllVisible=Yes   BubbleSize=243.84
   CoordSys=GLOBAL   AxisDir=X   XRYZCoord=2500   LineType=Primary   LineColor=Gray8Dark   Visible=Yes   BubbleLoc=End
   CoordSys=GLOBAL   AxisDir=Y   XRYZCoord=0   LineType=Primary   LineColor=Gray8Dark   Visible=Yes   BubbleLoc=End
   CoordSys=GLOBAL   AxisDir=Z   XRYZCoord=0   LineType=Primary   LineColor=Gray8Dark   Visible=Yes   BubbleLoc=End
 
TABLE:  "GROUPS 1 - DEFINITIONS"
   GroupName=ALL   Selection=Yes   SectionCut=Yes   Steel=Yes   Concrete=Yes   Aluminum=Yes   ColdFormed=Yes   Stage=Yes   Bridge=Yes   AutoSeismic=No   AutoWind=No   SelDesSteel=No   SelDesAlum=No   SelDesCold=No   MassWeight=Yes   Color=Red
   GroupName=Sensor_Points   Selection=Yes   SectionCut=Yes   Steel=Yes   Concrete=Yes   Aluminum=Yes   ColdFormed=Yes   Stage=Yes   Bridge=Yes   AutoSeismic=No   AutoWind=No   SelDesSteel=No   SelDesAlum=No   SelDesCold=No   MassWeight=Yes   Color=Blue
 
TABLE:  "GROUPS 2 - ASSIGNMENTS"
   GroupName=Sensor_Points   ObjectType=Joint   ObjectLabel=3
 
TABLE:  "JOINT COORDINATES"
   Joint=1   CoordSys=GLOBAL   CoordType=Cartesian   XorR=0   Y=0   Z=0   SpecialJt=Yes
   Joint=3   CoordSys=GLOBAL   CoordType=Cartesian   XorR=1500   Y=0   Z=0   SpecialJt=Yes
   Joint=54   CoordSys=GLOBAL   CoordType=Cartesian   XorR=3000   Y=0   Z=0   SpecialJt=Yes
 
TABLE:  "JOINT PATTERN DEFINITIONS"
   Pattern=Default
 
TABLE:  "JOINT RESTRAINT ASSIGNMENTS"
   Joint=1   U1=Yes   U2=No   U3=Yes   R1=No   R2=No   R3=No
   Joint=54   U1=No   U2=No   U3=Yes   R1=No   R2=No   R3=No
 
TABLE:  "LANE DEFINITION DATA"
   Lane=LANE_NEW   LaneFrom=Frame   Frame=2   Width=0   Offset=0   LoadGroup=Default   DiscAlong=10   DiscAcross=10   DiscSpan=No   DiscLane=Yes   DiscLaneFac=300   LeftType=Interior   RightType=Interior   Color=Red
 
TABLE:  "LOAD CASE DEFINITIONS"
   Case=DEAD   Type=LinStatic   InitialCond=Zero   DesTypeOpt="Prog Det"   DesignType=Dead   DesActOpt="Prog Det"   DesignAct=Non-Composite   AutoType=None   RunCase=Yes
   Case=MODAL   Type=LinModal   InitialCond=Zero   DesTypeOpt="Prog Det"   DesignType=Other   DesActOpt="Prog Det"   DesignAct=Other   AutoType=None   RunCase=Yes
   Case="RHA Moveing Load"   Type=LinModHist   InitialCond=Zero   ModalCase=MODAL   DesTypeOpt="Prog Det"   DesignType="Vehicle Live"   DesActOpt="Prog Det"   DesignAct="Short-Term Composite"   AutoType=None   RunCase=Yes
 
TABLE:  "LOAD PATTERN DEFINITIONS"
   LoadPat=DEAD   DesignType=Dead   SelfWtMult=0
   LoadPat=Move   DesignType="Vehicle Live"   SelfWtMult=0
 
TABLE:  "MASS SOURCE"
   MassSource=MSSSRC1   Elements=No   Masses=No   Loads=Yes   IsDefault=Yes   LoadPat=DEAD   Multiplier=1
 
TABLE:  "MATERIAL PROPERTIES 01 - GENERAL"
   Material=4000Psi   Type=Concrete   SymType=Isotropic   TempDepend=No   Color=Blue   Notes="Normalweight f'c = 4 ksi added 27/06/2020 09:43:38 ?.?"
   Material=A416Gr270   Type=Tendon   Grade="Grade 270"   SymType=Uniaxial   TempDepend=No   Color=Cyan   GUID=65795dfc-f9be-4565-a25b-efa25aae5146   Notes="ASTM A416 Grade 270 6/14/2022 14:49:00"
   Material=A615Gr60   Type=Rebar   SymType=Uniaxial   TempDepend=No   Color=Gray8Dark   Notes="ASTM A615 Grade 60 added 27/06/2020 09:45:31 ?.?"
   Material=ST37   Type=Steel   SymType=Isotropic   TempDepend=No   Color=Gray8Dark   Notes="ASTM A992 Fy=50 ksi added 27/06/2020 09:43:38 ?.?"
 
TABLE:  "MATERIAL PROPERTIES 02 - BASIC MECHANICAL PROPERTIES"
   Material=4000Psi   UnitWeight=0.00240276966501002   UnitMass=2.45014307353044E-06   E1=253456.356440272   G12=105606.815183447   U12=0.2   A1=9.9E-06
   Material=A416Gr270   UnitWeight=0.00784904757236607   UnitMass=8.0038007068661E-06   E1=2003748.43449687   A1=1.16999994421006E-05
   Material=A615Gr60   UnitWeight=0.00784904757236607   UnitMass=8.00380070686609E-06   E1=2038901.91580383   A1=1.17E-05
   Material=ST37   UnitWeight=0.00784904757236607   UnitMass=8.00380070686609E-06   E1=2038901.91580383   G12=784193.044539935   U12=0.3   A1=1.17E-05
 
TABLE:  "MATERIAL PROPERTIES 03A - STEEL DATA"
   Material=ST37   Fy=2400   Fu=3700   EffFy=2400   EffFu=3700   SSCurveOpt=Simple   SSHysType=Kinematic   SHard=0.015   SMax=0.11   SRup=0.17   FinalSlope=-0.1   CoupModType="Von Mises"
 
TABLE:  "MATERIAL PROPERTIES 03B - CONCRETE DATA"
   Material=4000Psi   Fc=281.227850455701   eFc=281.227850455701   LtWtConc=No   SSCurveOpt=Mander   SSHysType=Takeda   SFc=0.00221914221766202   SCap=0.005   FinalSlope=-0.1   FAngle=0   DAngle=0   CoupModType="Modified Darwin-Pecknold"
 
TABLE:  "MATERIAL PROPERTIES 03E - REBAR DATA"
   Material=A615Gr60   Fy=4218.41775683551   Fu=6327.62663525327   EffFy=4640.25953251907   EffFu=6960.3892987786   SSCurveOpt=Simple   SSHysType=Kinematic   SHard=0.01   SCap=0.09   FinalSlope=-0.1   UseCTDef=No   CoupModType="Von Mises"
 
TABLE:  "MATERIAL PROPERTIES 03F - TENDON DATA"
   Material=A416Gr270   Fy=17232.2365366731   Fu=18982.8799057598   SSCurveOpt="270 ksi"   SSHysType=Kinematic   FinalSlope=-0.1   CoupModType="Von Mises"
 
TABLE:  "MATERIAL PROPERTIES 03J - COUPLED NONLINEAR VON MISES DATA"
   Material=A416Gr270   YieldStress=17232.2365366731   LinIsoHard=No   LinKinHard=No   NLIsoSaHard=No
   Material=A615Gr60   YieldStress=4640.25953251907   LinIsoHard=No   LinKinHard=No   NLIsoSaHard=No
   Material=ST37   YieldStress=2400   LinIsoHard=No   LinKinHard=No   NLIsoSaHard=No
 
TABLE:  "MATERIAL PROPERTIES 06 - DAMPING PARAMETERS"
   Material=4000Psi   ModalRatio=0   VisMass=0   VisStiff=0   HysMass=0   HysStiff=0
   Material=A416Gr270   ModalRatio=0   VisMass=0   VisStiff=0   HysMass=0   HysStiff=0
   Material=A615Gr60   ModalRatio=0   VisMass=0   VisStiff=0   HysMass=0   HysStiff=0
   Material=ST37   ModalRatio=0   VisMass=0   VisStiff=0   HysMass=0   HysStiff=0
 
TABLE:  "MATERIAL PROPERTIES 09 - ACCEPTANCE CRITERIA"
   Material=4000Psi   IOTens=0.01   LSTens=0.02   CPTens=0.05   IOComp=-0.003   LSComp=-0.006   CPComp=-0.015   IgnoreTens=Yes
   Material=A416Gr270   IOTens=0.015   LSTens=0.023   CPTens=0.03   IOComp=-0.015   LSComp=-0.023   CPComp=-0.03
   Material=A615Gr60   IOTens=0.01   LSTens=0.02   CPTens=0.05   IOComp=-0.005   LSComp=-0.01   CPComp=-0.02
   Material=ST37   IOTens=0.01   LSTens=0.02   CPTens=0.05   IOComp=-0.005   LSComp=-0.01   CPComp=-0.02
 
TABLE:  "MULTI-STEP MOVING LOAD 1 - GENERAL"
   LoadPat=Move   LoadDur=3.2   LoadDisc=0.01
 
TABLE:  "MULTI-STEP MOVING LOAD 2 - VEHICLE DATA"
   LoadPat=Move   Vehicle=Vehicle   Lane=LANE_NEW   Station=0   StartTime=0   Direction=Forward   Speed=1000
 
TABLE:  "OPTIONS - COLORS - DISPLAY"
   DeviceType=Screen   Points=Yellow   LinesFrame=Yellow   LinesFrmDL=Yellow   LinesCable=Green   LinesTendon=Green   SpringLinks=Green   Restraints=Green   Releases=Green   Axes=Cyan   Text=Green   ShadowLines=Gray8Dark _
        GuideLines=Gray8Dark   Highlight=Red   Selection=White   AreaFillBot=Red   AreaFillTop=16744703   AreaFillSd=Red   AreaEdge=DarkRed   SolidF1=Red   SolidF2=Blue   SolidF3=Green   SolidF4=Yellow   SolidF5=White   SolidF6=Cyan _
        SolidEdge=DarkRed   Floor=Gray4   Background=Black   BGLowLeft=Black   BGLowRight=Black   BGUpRight=Black   Darkness=0.5
   DeviceType=Printer   Points=Gray8Dark   LinesFrame=Black   LinesFrmDL=Gray4   LinesCable=Black   LinesTendon=Black   SpringLinks=Gray8Dark   Restraints=Gray8Dark   Releases=Gray4   Axes=Black   Text=Black   ShadowLines=Gray4 _
        GuideLines=Gray4   Highlight=Black   Selection=Black   AreaFillBot=Gray4   AreaFillTop=Gray8Dark   AreaFillSd=Gray4   AreaEdge=Black   SolidF1=Gray1Light   SolidF2=Gray2   SolidF3=Gray3   SolidF4=Gray4   SolidF5=Gray5 _
        SolidF6=Gray6   SolidEdge=Black   Floor=Gray4   Background=White   BGLowLeft=White   BGLowRight=White   BGUpRight=White   Darkness=0.5
   DeviceType="Color Printer"   Points=Black   LinesFrame=7303023   LinesFrmDL=Blue   LinesCable=Green   LinesTendon=Green   SpringLinks=Green   Restraints=9408399   Releases=Green   Axes=Cyan   Text=Black   ShadowLines=Gray8Dark _
        GuideLines=10461087   Highlight=Red   Selection=10504778   AreaFillBot=16634568   AreaFillTop=14277119   AreaFillSd=16634568   AreaEdge=7303023   SolidF1=10122991   SolidF2=16756912   SolidF3=11599795   SolidF4=12713983 _
        SolidF5=White   SolidF6=16777128   SolidEdge=7303023   Floor=13619151   Background=White   BGLowLeft=White   BGLowRight=14671839   BGUpRight=White   Darkness=0.5
 
TABLE:  "OPTIONS - COLORS - OUTPUT"
   DeviceType=Screen   Contour1=13107400   Contour2=6553828   Contour3=Red   Contour4=16639   Contour5=Orange   Contour6=43775   Contour7=54527   Contour8=Yellow   Contour9=65408   Contour10=Green   Contour11=8453888   Contour12=Cyan _
        Contour13=16755200   Contour14=16733440   Contour15=Blue   Transpare=0.5   Ratio1=Cyan   Ratio2=Green   Ratio3=Yellow   Ratio4=Orange   Ratio5=Red   RatioNotD=Gray4   RatioNotC=Red   RatioVal1=0.5   RatioVal2=0.7   RatioVal3=0.9 _
        RatioVal4=1   DFillPos=Yellow   DFillNeg=Red   DFillRPos=Blue   DFillRNeg=Blue
   DeviceType=Printer   Contour1=Black   Contour2=3158064   Contour3=4210752   Contour4=5263440   Contour5=6316128   Contour6=7368816   Contour7=Gray8Dark   Contour8=Gray7   Contour9=Gray6   Contour10=Gray5   Contour11=Gray4 _
        Contour12=Gray3   Contour13=Gray2   Contour14=Gray1Light   Contour15=White   Transpare=0   Ratio1=Gray2   Ratio2=Gray4   Ratio3=Gray8Dark   Ratio4=4210752   Ratio5=Black   RatioNotD=Gray4   RatioNotC=Black   RatioVal1=0.5 _
        RatioVal2=0.7   RatioVal3=0.9   RatioVal4=1   DFillPos=Gray8Dark   DFillNeg=Gray8Dark   DFillRPos=4210752   DFillRNeg=4210752
   DeviceType="Color Printer"   Contour1=13107400   Contour2=6553828   Contour3=Red   Contour4=16639   Contour5=Orange   Contour6=43775   Contour7=54527   Contour8=Yellow   Contour9=65408   Contour10=Green   Contour11=8453888 _
        Contour12=Cyan   Contour13=16755200   Contour14=16733440   Contour15=Blue   Transpare=0.5   Ratio1=Cyan   Ratio2=Green   Ratio3=Yellow   Ratio4=Orange   Ratio5=Red   RatioNotD=Gray4   RatioNotC=Red   RatioVal1=0.5   RatioVal2=0.7 _
        RatioVal3=0.9   RatioVal4=1   DFillPos=Red   DFillNeg=Red   DFillRPos=Blue   DFillRNeg=Blue
 
TABLE:  "OVERWRITES - STEEL DESIGN - AISC-LRFD93"
   Frame=2   DesignSect="Program Determined"   FrameType="Program Determined"   Fy=0   RLLF=0   AreaRatio=0   XLMajor=0   XLMinor=0   XKMajor=0   XKMinor=0   CmMajor=0   CmMinor=0   Cb=0   B1Major=0   B1Minor=0   B2Major=0   B2Minor=0 _
        PhiPnc=0   PhiPnt=0   PhiMn3=0   PhiMn2=0   PhiVn2=0   PhiVn3=0   CheckDefl="Program Determined"   DeflType="Program Determined"   DLRat=0   SDLAndLLRat=0   LLRat=0   TotalRat=0   NetRat=0   DLAbs=0   SDLAndLLAbs=0   LLAbs=0 _
        TotalAbs=0   NetAbs=0   SpecCamber=0
 
TABLE:  "PREFERENCES - ALUMINUM DESIGN - AA 2015"
   THDesign=Envelopes   SRatioLimit=1   Provision=ASD   LatFact=1.33333333333333   UseLatFact=No   Bridge=No   OmegaTy=1.65   OmegaTr=1.95   OmegaC=1.65   OmegaBo=1.65   OmegaBr=1.95   OmegaVo=1.65   OmegaVr=1.95
 
TABLE:  "PREFERENCES - COLD FORMED DESIGN - AISI-ASD96"
   THDesign=Envelopes   FrameType="Braced Frame"   SRatioLimit=1   MaxIter=1   OmegaBS=1.67   OmegaBUS=1.67   OmegaBLTB=1.67   OmegaVS=1.67   OmegaVNS=1.5   OmegaT=1.67   OmegaC=1.8
 
TABLE:  "PREFERENCES - CONCRETE DESIGN - ACI 318-08/IBC2009"
   THDesign=Envelopes   NumCurves=24   NumPoints=11   MinEccen=Yes   PatLLF=0.75   UFLimit=0.95   SeisCat=D   Rho=1   Sds=0.5   PhiT=0.9   PhiCTied=0.65   PhiCSpiral=0.7   PhiV=0.75   PhiVSeismic=0.6   PhiVJoint=0.85
 
TABLE:  "PREFERENCES - DIMENSIONAL"
   MergeTol=0.1   FineGrid=25   Nudge=25   SelectTol=3   SnapTol=12   SLineThick=1   PLineThick=4   MaxFont=8   MinFont=3   AutoZoom=10   ShrinkFact=70   TextFileLen=240
 
TABLE:  "PREFERENCES - STEEL DESIGN - AISC-LRFD93"
   THDesign=Envelopes   FrameType="Moment Frame"   PatLLF=0.75   SRatioLimit=0.95   MaxIter=1   PhiB=0.9   PhiC=0.85   PhiT=0.9   PhiV=0.9   PhiCA=0.9   CheckDefl=No   DLRat=120   SDLAndLLRat=120   LLRat=360   TotalRat=240   NetRat=240
 
TABLE:  "PROGRAM CONTROL"
   ProgramName=SAP2000   Version=23.3.1   CurrUnits="Kgf, cm, C"   SteelCode=AISC-LRFD93   ConcCode="ACI 318-08/IBC2009"   AlumCode="AA 2015"   ColdCode=AISI-ASD96   RegenHinge=Yes
 
TABLE:  "PROJECT INFORMATION"
   Item="Company Name"
   Item="Client Name"
   Item="Project Name"
   Item="Project Number"
   Item="Model Name"
   Item="Model Description"
   Item="Revision Number"
   Item="Frame Type"
   Item=Engineer
   Item=Checker
   Item=Supervisor
   Item="Issue Code"
   Item="Design Code"
 
TABLE:  "REBAR SIZES"
   RebarID=#2   Area=0.32258   Diameter=0.635
   RebarID=#3   Area=0.709675996154547   Diameter=0.9525
   RebarID=#4   Area=1.29032001922727   Diameter=1.27
   RebarID=#5   Area=1.99999601538181   Diameter=1.5875
   RebarID=#6   Area=2.83870398461819   Diameter=1.905
   RebarID=#7   Area=3.87096015381813   Diameter=2.2225
   RebarID=#8   Area=5.09676413843632   Diameter=2.54
   RebarID=#9   Area=6.4516   Diameter=2.86512005329132
   RebarID=#10   Area=8.1935318769455   Diameter=3.22579995155334
   RebarID=#11   Area=10.0644956308365   Diameter=3.58139991521835
   RebarID=#14   Area=14.5161   Diameter=4.30021989583969
   RebarID=#18   Area=25.8064   Diameter=5.73277992248535
   RebarID=10M   Area=1.00000004162606   Diameter=1.13000003604438
   RebarID=15M   Area=2.00000008325212   Diameter=1.60000002402959
   RebarID=20M   Area=3.00000012487818   Diameter=1.95000002928606
   RebarID=25M   Area=5.00000020813031   Diameter=2.52000011414055
   RebarID=30M   Area=7.00000029138243   Diameter=2.99000000675832
   RebarID=35M   Area=10.0000004162606   Diameter=3.57000012990997
   RebarID=45M   Area=15.0000006243909   Diameter=4.37000014192476
   RebarID=55M   Area=25.0000010406515   Diameter=5.6400002372922
   RebarID=6d   Area=0.283000004150781   Diameter=0.600000009011096
   RebarID=8d   Area=0.503000013308514   Diameter=0.800000012014795
   RebarID=10d   Area=0.785000032676458   Diameter=1.00000001501849
   RebarID=12d   Area=1.13000004703745   Diameter=1.20000001802219
   RebarID=14d   Area=1.54000006410413   Diameter=1.40000002102589
   RebarID=16d   Area=2.01000008366838   Diameter=1.60000002402959
   RebarID=20d   Area=3.14000013070583   Diameter=2.00000003003699
   RebarID=25d   Area=4.91000020438396   Diameter=2.50000003754623
   RebarID=26d   Area=5.31000022103439   Diameter=2.60000003904808
   RebarID=28d   Area=6.16000025641654   Diameter=2.80000004205178
   RebarID=N12   Area=1.13000004703745   Diameter=1.20000001802219
   RebarID=N16   Area=2.01000008366838   Diameter=1.60000002402959
   RebarID=N20   Area=3.14000013070583   Diameter=2.00000003003699
   RebarID=N24   Area=4.5200001881498   Diameter=2.40000003604438
   RebarID=N28   Area=6.16000025641654   Diameter=2.80000004205178
   RebarID=N32   Area=8.04000033467353   Diameter=3.20000004805918
   RebarID=N36   Area=10.2000004245858   Diameter=3.60000005406658
 
TABLE:  "SOLID PROPERTY DEFINITIONS"
   SolidProp=Solid1   Material=4000Psi   MatAngleA=0   MatAngleB=0   MatAngleC=0   InComp=Yes   Color=Red
 
TABLE:  "VEHICLES 2 - GENERAL VEHICLES 1 - GENERAL"
   VehName=Vehicle   StayInLane=No
 
TABLE:  "VEHICLES 3 - GENERAL VEHICLES 2 - LOADS"
   VehName=Vehicle   LoadType="Leading Load"   InterUnif=0   InterAxle=300
   VehName=Vehicle   LoadType="Fixed Length"   InterUnif=0   InterAxle=300   InterMinD=200
 
TABLE:  "VEHICLES 4 - VEHICLE CLASSES"
   VehClass=Vehicle   VehName=Vehicle   ScaleFactor=1
 
END TABLE DATA
